LAMMPS (29 Oct 2020)
# Input file for peeling of a single layer of graphite (1 layer of Graphene)
# Martina, 21 march 2017

# ------------------------ INITIALIZATION ----------------------------
units 		metal
dimension	3
boundary	p	p	p
atom_style	atomic

# ----------------------- ATOM DEFINITION ----------------------------
read_data 	structure_t3
Reading data file ...
  orthogonal box = (0.0000000 -5.0000000 -5.0000000) to (4.9190240 43.340000 216.80000)
  reading atoms ...
  1360 atoms

# ------------------------ FORCE FIELDS ------------------------------
pair_style	airebo 3.0 1 1
pair_coeff	* * CH.rebo C C C C C C
Reading airebo potential file CH.rebo with DATE: 2011-10-25

# ------------------------- SETTINGS ---------------------------------

timestep 0.001

group	free	type 2 3 6
1000 atoms in group free
group anglesx type 5
0 atoms in group anglesx
group	forced	type 4
8 atoms in group forced
group	moving	union free forced
1008 atoms in group moving
group	static	type 1
352 atoms in group static
variable		time equal step*dt

# geometry
compute	a_cn all coord/atom cutoff 1.939756
compute	cn all reduce ave c_a_cn
variable	radius equal 1.7
variable	lx_ equal abs(bound(all,xmin))+abs(bound(all,xmax))+2.*1.7
variable	ly_ equal abs(bound(all,ymin))+abs(bound(all,ymax))+2.*1.7
variable	lz_ equal abs(bound(all,zmin))+abs(bound(all,zmax))+2.*1.7
variable	volume equal 7.089268*41.74*63.52

variable	lx_ delete
variable	ly_ delete
variable	lz_ delete
variable	radius delete
compute	a_u all displace/atom
compute	ucz all reduce ave c_a_u[3]

# energy
compute	a_pe moving pe/atom
variable	a_pe atom c_a_pe
compute	pe moving reduce ave c_a_pe
compute	a_ke moving ke/atom
variable	a_ke atom c_a_ke
compute	ke moving reduce ave c_a_ke
compute	temp moving temp

# work

compute	p all pressure temp
compute	a_v all stress/atom NULL
compute	v moving reduce sum c_a_v[1] c_a_v[2] c_a_v[3] c_a_v[4] c_a_v[5] c_a_v[6]
variable	s11 equal c_v[1]/18795.9520622464
variable	s22 equal c_v[2]/18795.9520622464
variable	s33 equal c_v[3]/18795.9520622464
variable	s12 equal c_v[4]/18795.9520622464
variable	s23 equal c_v[6]/18795.9520622464
variable	s31 equal c_v[5]/18795.9520622464
variable	a_fdx atom fx*c_a_u[1]
variable	a_fdy atom fy*c_a_u[2]
variable	a_fdz atom fz*c_a_u[3]
compute	fdx moving reduce ave v_a_fdx
compute	fdy moving reduce ave v_a_fdy
compute	fdz moving reduce ave v_a_fdz

######################################
# EQUILIBRATION

##---------------------------------------------------------------------------------------
# minimizzazione
fix              32 all box/relax x 0.0
fix              31 all box/relax y 0.0
min_style cg
minimize 1.0e-15 1.0e-5 2000 2000
  update every 1 steps, delay 0 steps, check yes
Step Temp E_pair E_mol TotEng Press Volume
0            0   -9934.6595            0   -9934.6595    -28096.55    52740.851
Loop time of 68.2998 on 1 procs for 1243 steps with 1360 atoms

Minimization stats:
  Stopping criterion = max force evaluations
  Energy initial, next-to-last, final =
  Force two-norm initial, final = 1981.7657 0.63341549
  Force max component initial, final = 1506.2525 0.5383441
  Final line search alpha, max atom move = 0.00017919529 9.6468729e-05
  Iterations, force evaluations = 1243 2000

unfix 32
unfix 31

fix		zero static setforce 0.0 0.0 0.0

# Set thermo output

thermo_style	custom step v_time pe ke temp pxx pyy pzz pxy pyz pxz v_s11 v_s22 v_s33 v_s12 v_s23 v_s31 c_fdx c_fdy c_fdz c_cn
thermo_modify	norm yes
thermo		1000

# Use OVITO trajectories

dump		1 all custom 1000 pre_production.lammpstrj id type x y z c_a_u[1] c_a_u[2] c_a_u[3] vx vy vz fx fy fz v_a_pe v_a_ke c_a_cn 	c_a_v[1] c_a_v[2] c_a_v[3] c_a_v[4] c_a_v[6] c_a_v[5]
dump_modify 1 sort id
fix		preproperties moving ave/time 1 200 200 	v_time c_pe c_ke c_temp v_s11 v_s22 v_s33 v_s12 v_s23 v_s31 c_p[1] c_p[2] c_p[3] c_p[4] c_p[6] c_p[5] c_fdx c_fdy c_fdz c_cn  c_ucz file preproperties.txt  title1 "#! 1.step 2.t, ps 3.U, eV 4.K, eV 5.T, K 6.s11, bar 7.s22, bar 8.s33, bar 9.s12, bar 10.s23, bar 11.s31, bar 12.Pxx, bar 13.Pyy, bar 14.Pzz, bar 15.Pxy, bar 16.Pyz, bar 17.Pzx, bar #18.fdx, eV 19.fdy, eV 20.fdz, eV 21.nn 23.ucz, A"

##---------------------------------------------------------------------------------------
# Equilibration Stage  (NVE dynamics from 600K —> 300 K)

velocity 	all create 600.0 1231
fix		langevin moving langevin 300. 300. 2.5 100000
fix		nve moving nve
run		10000
Step v_time PotEng KinEng Temp Pxx Pyy Pzz Pxy Pyz Pxz v_s11 v_s22 v_s33 v_s12 v_s23 v_s31 c_fdx c_fdy c_fdz c_cn
1243        1.243   -7.3238981   0.07749906          600    2176.9689    2245.2912    2495.0274    38.143212    10.924609    30.182938    17882.096   -4648.1912   -4914.6581   -53.659029    36.349274   -22.945379 -1.2869667e-05 0.00068632061 0.00021966904    2.9441176
Averages over the last 6 of 12 rows, steps 7000 to 11243:
v_time PotEng KinEng Temp Pxx Pyy Pzz Pxy Pyz Pxz v_s11 v_s22 v_s33 v_s12 v_s23 v_s31 c_fdx c_fdy c_fdz c_cn
9.37383 -7.29614 0.0483499 374.327 495.732 1753.87 1355.58 90.1461 -44.2508 -6.51818 22465.3 -3206.1 -1780.26 -203.921 207.559 62.2747 -0.0254064 -0.0257554 -0.0267974 2.94412
Loop time of 431.232 on 1 procs for 10000 steps with 1360 atoms

unfix langevin
unfix nve

# Equilibration stage  (NVT dynamics from 600K —> 300 K)
fix			npt moving npt temp 300. 300. 1. y 0.0 0.0 10.0
fix_modify		npt temp temp
run		10000
Step v_time PotEng KinEng Temp Pxx Pyy Pzz Pxy Pyz Pxz v_s11 v_s22 v_s33 v_s12 v_s23 v_s31 c_fdx c_fdy c_fdz c_cn
11243       11.243    -7.295396  0.048190629    373.09326    454.28872    2278.1608      1324.47   -535.30882   -74.006943   -35.817774     22678.32   -4564.0724    -1722.356    1604.2107    325.36578     137.4271 -0.025908162 -0.026391574 -0.026283478    2.9441176
Averages over the last 6 of 12 rows, steps 17000 to 21243:
v_time PotEng KinEng Temp Pxx Pyy Pzz Pxy Pyz Pxz v_s11 v_s22 v_s33 v_s12 v_s23 v_s31 c_fdx c_fdy c_fdz c_cn
19.3738 -7.29529 0.0491496 380.518 422.248 1142.41 1436.04 -26.4043 31.832 61.8453 22508.7 -2361.8 -2043.42 365.559 -18.6822 -112.414 -0.0263551 -0.0276359 -0.0262557 2.94412
Loop time of 435.372 on 1 procs for 10000 steps with 1360 atoms

unfix	npt
undump 	1
unfix   preproperties

write_data       relaxed_zz.data
System init for write_data ...
######################################
# SIMULATION DONE
print "All done"
All done
