LAMMPS (29 Oct 2020)
# Input file for peeling of a single layer of graphite (1 layer of Graphene)
# Martina, 21 march 2017

# ------------------------ INITIALIZATION ----------------------------
units 		metal
dimension	3
boundary	p	p	p
atom_style	atomic

# ----------------------- ATOM DEFINITION ----------------------------
read_data 	structure_t3
Reading data file ...
  orthogonal box = (0.0000000 -5.0000000 -5.0000000) to (9.8380490 64.640000 216.80000)
  reading atoms ...
  4240 atoms

# ------------------------ FORCE FIELDS ------------------------------
pair_style	airebo 3.0 1 1
pair_coeff	* * CH.airebo C C C C C C
Reading airebo potential file CH.airebo with DATE: 2011-10-25

# ------------------------- SETTINGS ---------------------------------

timestep 0.001

group	free	type 2 3 4 5
3524 atoms in group free
group anglesx type 4
16 atoms in group anglesx
group	forced	type 5
0 atoms in group forced
group	moving	union free forced
3524 atoms in group moving
group	static	type 1
716 atoms in group static
variable		time equal step*dt

# geometry
compute	a_cn all coord/atom cutoff 1.939756
compute	cn all reduce ave c_a_cn
variable	radius equal 1.7
variable	lx_ equal abs(bound(all,xmin))+abs(bound(all,xmax))+2.*1.7
variable	ly_ equal abs(bound(all,ymin))+abs(bound(all,ymax))+2.*1.7
variable	lz_ equal abs(bound(all,zmin))+abs(bound(all,zmax))+2.*1.7
variable	volume equal 12.008293*63.04*63.52

variable	lx_ delete
variable	ly_ delete
variable	lz_ delete
variable	radius delete
compute	a_u all displace/atom
compute	ucz all reduce ave c_a_u[3]

# energy
compute	a_pe moving pe/atom
variable	a_pe atom c_a_pe
compute	pe moving reduce ave c_a_pe
compute	a_ke moving ke/atom
variable	a_ke atom c_a_ke
compute	ke moving reduce ave c_a_ke
compute	temp moving temp

# work

compute	p all pressure temp
compute	a_v all stress/atom NULL
compute	v moving reduce sum c_a_v[1] c_a_v[2] c_a_v[3] c_a_v[4] c_a_v[5] c_a_v[6]
variable	s11 equal c_v[1]/48084.8172665344
variable	s22 equal c_v[2]/48084.8172665344
variable	s33 equal c_v[3]/48084.8172665344
variable	s12 equal c_v[4]/48084.8172665344
variable	s23 equal c_v[6]/48084.8172665344
variable	s31 equal c_v[5]/48084.8172665344
variable	a_fdx atom fx*c_a_u[1]
variable	a_fdy atom fy*c_a_u[2]
variable	a_fdz atom fz*c_a_u[3]
compute	fdx moving reduce ave v_a_fdx
compute	fdy moving reduce ave v_a_fdy
compute	fdz moving reduce ave v_a_fdz

######################################
# EQUILIBRATION

##---------------------------------------------------------------------------------------
# minimizzazione
fix              32 all box/relax x 0.0
fix              31 all box/relax y 0.0
min_style cg
minimize 1.0e-15 1.0e-5 2000 2000
  update every 1 steps, delay 0 steps, check yes
Step Temp E_pair E_mol TotEng Press Volume
0            0   -31200.384            0   -31200.384    -31344.73       151960
Loop time of 210.298 on 1 procs for 1198 steps with 4240 atoms

Minimization stats:
  Stopping criterion = max force evaluations
  Energy initial, next-to-last, final =
  Force two-norm initial, final = 6353.8371 1.9749982
  Force max component initial, final = 4706.0122 1.9082249
  Final line search alpha, max atom move = 0.00012240021 0.00023356712
  Iterations, force evaluations = 1198 2000

unfix 32
unfix 31

fix		zero static setforce 0.0 0.0 0.0

# Set thermo output

thermo_style	custom step v_time pe ke temp pxx pyy pzz pxy pyz pxz v_s11 v_s22 v_s33 v_s12 v_s23 v_s31 c_fdx c_fdy c_fdz c_cn
thermo_modify	norm yes
thermo		1000

# Use OVITO trajectories

dump		1 all custom 100 pre_production.lammpstrj id type x y z c_a_u[1] c_a_u[2] c_a_u[3] vx vy vz fx fy fz v_a_pe v_a_ke c_a_cn 	c_a_v[1] c_a_v[2] c_a_v[3] c_a_v[4] c_a_v[6] c_a_v[5]
dump_modify 1 sort id
fix		preproperties moving ave/time 1 200 200 	v_time c_pe c_ke c_temp v_s11 v_s22 v_s33 v_s12 v_s23 v_s31 c_p[1] c_p[2] c_p[3] c_p[4] c_p[6] c_p[5] c_fdx c_fdy c_fdz c_cn  c_ucz file preproperties.txt  title1 "#! 1.step 2.t, ps 3.U, eV 4.K, eV 5.T, K 6.s11, bar 7.s22, bar 8.s33, bar 9.s12, bar 10.s23, bar 11.s31, bar 12.Pxx, bar 13.Pyy, bar 14.Pzz, bar 15.Pxy, bar 16.Pyz, bar 17.Pzx, bar #18.fdx, eV 19.fdy, eV 20.fdz, eV 21.nn 23.ucz, A"

##---------------------------------------------------------------------------------------
# Equilibration Stage  (NVE dynamics from 600K —> 300 K)

velocity 	all create 300.0 1231
fix		langevin moving langevin 300. 300. 2.5 100000
fix		nve moving nve
run		3000
Step v_time PotEng KinEng Temp Pxx Pyy Pzz Pxy Pyz Pxz v_s11 v_s22 v_s33 v_s12 v_s23 v_s31 c_fdx c_fdy c_fdz c_cn
1198        1.198   -7.3775827  0.038768898          300    1227.0827    1220.8105    1721.5401   -30.999647    -4.149045   -18.156812    16551.072   -3146.9618   -4370.4943    113.93118    5.3180676    61.849753 -3.5162526e-05 0.00041165369 1.6178032e-05    2.9641509
Loop time of 393.637 on 1 procs for 3000 steps with 4240 atoms

unfix langevin
unfix nve

# Equilibration stage  (NVT dynamics from 600K —> 300 K)
fix			npt moving npt temp 300. 300. 1. y 0.0 0.0 10.0
fix_modify		npt temp temp
run		3000
Step v_time PotEng KinEng Temp Pxx Pyy Pzz Pxy Pyz Pxz v_s11 v_s22 v_s33 v_s12 v_s23 v_s31 c_fdx c_fdy c_fdz c_cn
4198        4.198   -7.3502618  0.034059245    263.55594    193.39476    462.54636    386.11932    311.96369    44.663886   -18.627067    19908.605   -796.32549   -292.84815   -915.10529   -138.96117    61.390469 -0.021836449 -0.022347385 -0.022769363    2.9641509
Loop time of 382.424 on 1 procs for 3000 steps with 4240 atoms

unfix	npt
undump 	1
unfix   preproperties

write_data       relaxed_arm.data
System init for write_data ...
######################################
# SIMULATION DONE
print "All done"
All done
