LAMMPS (29 Oct 2020)
# Input file for uniaxial tensile loading of single layer graphene ARMCHAIR
# Martina, 1 giugno 2018

# ------------------------ INITIALIZATION ----------------------------
units 		metal
dimension	3
boundary	p	p	p
atom_style	atomic

# ----------------------- ATOM DEFINITION ----------------------------
read_data 	structure
Reading data file ...
  orthogonal box = (0.0000000 0.0000000 -13.360000) to (49.190243 51.120000 16.700000)
  reading atoms ...
  960 atoms

# ------------------------ FORCE FIELDS ------------------------------
pair_style	airebo 3.0 1 1
pair_coeff	* * CH.airebo C
Reading airebo potential file CH.airebo with DATE: 2011-10-25

# ------------------------- SETTINGS ---------------------------------
compute peratom all pe/atom
timestep 0.001

variable		time equal step*dt
compute		a_pe all pe/atom
variable	a_pe atom c_a_pe
compute		pe all reduce ave c_a_pe
compute		a_ke all ke/atom
variable	a_ke atom c_a_ke
compute		ke all reduce ave c_a_ke
compute		temp all temp
######################################
# EQUILIBRATION

##---------------------------------------------------------------------------------------
# minimizzazione
fix              32 all box/relax x 0.0
fix              31 all box/relax y 0.0
min_style cg
minimize 1.0e-15 1.0e-5 20000 20000
  update every 1 steps, delay 0 steps, check yes
Step Temp E_pair E_mol TotEng Press Volume
0            0   -7112.2027            0   -7112.2027   -14502.122    75589.033
Loop time of 2.02994 on 1 procs for 185 steps with 960 atoms

Minimization stats:
  Stopping criterion = force tolerance
  Energy initial, next-to-last, final =
  Force two-norm initial, final = 1451.3971 7.0321910e-06
  Force max component initial, final = 1026.2928 1.5064994e-06
  Final line search alpha, max atom move = 1.0000000 1.5064994e-06
  Iterations, force evaluations = 185 207

unfix 32
unfix 31

# Set thermo output
thermo 1000
thermo_style custom step lx ly lz press pxx pyy pzz pe temp

# Use OVITO trajectories
dump 1 all custom 1000 Pre_production.lammpstrj id type x y z c_peratom fx fy fz
dump_modify 1 sort id

fix	properties all ave/time 1 200 200 	v_time c_pe c_ke c_temp 	file properties_relax.txt title1 "#! 1.step 2.t, ns 3.U, eV 4.K, eV 5.T, K "

##---------------------------------------------------------------------------------------
# Equilibration Stage  (NPT dynamics from 10K â€”> 300 K)

velocity 	all create 10.0 1231
fix		1 all npt temp 10 300 0.1 x 0 0 10 y 0 0 10 drag 2
run		50000
Step Lx Ly Lz Press Pxx Pyy Pzz PotEng Temp
185    48.384866    50.283027        30.06    18.104336    17.930674    19.076261    17.306071   -7129.5204           10
Averages over the last 26 of 52 rows, steps 26000 to 50185:
Lx Ly Lz Press Pxx Pyy Pzz PotEng Temp
48.3391 50.2092 30.06 80.0735 31.6422 209.24 -0.661442 -7101.72 230.203
Loop time of 495.837 on 1 procs for 50000 steps with 960 atoms

unfix 1
fix		2 all nvt temp 300 300 0.1
run		100000
Step Lx Ly Lz Press Pxx Pyy Pzz PotEng Temp
50185    48.317758    50.178145        30.06    342.51013    490.50122    534.20316    2.8260156   -7094.4997    305.33409
Averages over the last 33 of 65 rows, steps 82000 to 114000:
Lx Ly Lz Press Pxx Pyy Pzz PotEng Temp
48.3178 50.1781 30.06 374.894 409.49 720.101 -4.90983 -7093.31 299.993
