LAMMPS (17 Nov 2016)
# Input file for peeling of a single layer of graphite (1 layer of Graphene)
# Martina, 21 march 2017

# ------------------------ INITIALIZATION ----------------------------
units 		metal
dimension	3
boundary	p	p	p
atom_style	atomic

# ----------------------- ATOM DEFINITION ----------------------------
read_data 	structure_en_ad
  orthogonal box = (0 0 -25) to (49.1902 51.12 48.38)
  reading atoms ...
  960 atoms

# ------------------------ FORCE FIELDS ------------------------------
pair_style	airebo 3.0 1 1
pair_coeff	* * CH.airebo  C

# ------------------------- SETTINGS ---------------------------------

timestep 0.001

variable		time equal step*dt
compute		temp all temp
compute 	pe all pe
compute		ke all ke

# energy

######################################
# EQUILIBRATION

# Set thermo output
#thermo_style	custom step v_time c_PE c_KE c_TEMP
#thermo_modify	norm yes
thermo		1000

# Use OVITO trajectories
dump		1 all custom 1000 pre_production.lammpstrj id type x y z
dump_modify 1 sort id

fix	preproperties all ave/time 1 200 200 	v_time c_pe c_ke c_temp 	file preproperties.txt  title1 "#! 1.step 2.t, ps 3.U, eV 4.K, eV 5.T K"

##---------------------------------------------------------------------------------------
# minimizzazione
fix              32 all box/relax x 0.0
fix              31 all box/relax y 0.0
min_style cg
minimize 1.0e-15 1.0e-5 2000 2000
  1 neighbor list requests
  update every 1 steps, delay 0 steps, check yes
Step Temp E_pair E_mol TotEng Press Volume
0            0   -7112.1068            0   -7112.1068   -5928.8809    184521.73
Loop time of 1.42284 on 4 procs for 168 steps with 960 atoms

Minimization stats:
  Stopping criterion = linesearch alpha is zero
  Energy initial, next-to-last, final =
  Force two-norm initial, final = 1448.49 0.00037778
  Force max component initial, final = 1024.24 0.000297187
  Final line search alpha, max atom move = 0.0625 1.85742e-05
  Iterations, force evaluations = 168 180

unfix 32
unfix 31

write_data       minimized_structure.data
  1 neighbor list requests
  update every 1 steps, delay 10 steps, check yes

##---------------------------------------------------------------------------------------
# Equilibration stage  (NVT dynamics from 600K â€”> 300 K)
velocity 	all create 300.0 1231
fix			nvt all nvt temp 300. 300. 1.
fix_modify		nvt temp temp
run		10000
Step Temp E_pair E_mol TotEng Press
168          300   -7129.4212            0   -7092.2331    222.47956
Averages over the last 6 of 12 rows, steps 6000 to 10168:
Temp E_pair E_mol TotEng Press
302.6 -7093.24 0 -7055.73 -342.31
Loop time of 84.1854 on 4 procs for 10000 steps with 960 atoms
